Circuit: * C:\Users\boxca\Google Drive\Projects\Iridium-ADC\esim\analog frontend.asc

WARNING: Node N021 is floating.

WARNING: Less than two connections to node OUTP.  This node is used by R21.
WARNING: Less than two connections to node OUTN.  This node is used by R24.
Instance "m:u5:53": Length shorter than recommended for a level 1 MOSFET.
Instance "m:u5:52": Length shorter than recommended for a level 1 MOSFET.
Instance "m:u5:51": Length shorter than recommended for a level 1 MOSFET.
Instance "m:u5:50": Length shorter than recommended for a level 1 MOSFET.
Instance "m:u5:45": Length shorter than recommended for a level 1 MOSFET.
Instance "m:u5:44": Length shorter than recommended for a level 1 MOSFET.
Instance "m:u4:53": Length shorter than recommended for a level 1 MOSFET.
Instance "m:u4:52": Length shorter than recommended for a level 1 MOSFET.
Instance "m:u4:51": Length shorter than recommended for a level 1 MOSFET.
Instance "m:u4:50": Length shorter than recommended for a level 1 MOSFET.
Instance "m:u4:45": Length shorter than recommended for a level 1 MOSFET.
Instance "m:u4:44": Length shorter than recommended for a level 1 MOSFET.
Early termination of direct N-R iteration.
Direct Newton iteration failed to find .op point.  (Use ".option noopiter" to skip.)
Starting Gmin stepping
Gmin = 10
Gmin = 1.07374
Gmin = 0.115292
Gmin = 0.0123794
Gmin = 0.00132923
Gmin = 0.000142725
Gmin = 1.5325e-005
Gmin = 1.6455e-006
vernier = 0.5
vernier = 0.25
vernier = 0.125
vernier = 0.0625
vernier = 0.03125
Gmin = 6.73999e-007
vernier = 0.015625
vernier = 0.0078125
vernier = 0.00390625
vernier = 0.00195313
vernier = 0.000976563
vernier = 0.000488281
Gmin = 0
Gmin stepping failed

Starting source stepping with srcstepmethod=0
Source Step = 3.0303%
Source Step = 33.3333%
Source Step = 63.6364%
Source Step = 93.9394%
Source stepping succeeded in finding the operating point.


Date: Thu May 24 21:39:39 2018
Total elapsed time: 3.176 seconds.

tnom = 27
temp = 27
method = modified trap
totiter = 10131
traniter = 8152
tranpoints = 4041
accept = 4034
rejected = 7
matrix size = 364
fillins = 1494
solver = Normal
Thread vector: 59.6/43.7[4] 20.8/15.5[4] 18.0/12.5[4] 2.9/6.0[1]  2592/500
Matrix Compiler1: 108.65 KB object code size  41.7/20.7/[8.3]
Matrix Compiler2: 56.73 KB object code size  14.8/11.6/[7.1]

